LAMMPS (29 Aug 2024 - Update 3)
# Depositing TIP3P water into MOF with QeQ charges obtained with Ongari scheme

variable        temp equal 1000.0
variable        pressure equal 1.0
variable        dt  equal  0.2
variable        nsteps equal 50000
variable        thermo_freq equal 125
variable        dump_freq equal 125

processors      * * * map xyz

boundary        p p p
units           real
atom_style      full

box             tilt large

The 'box' command has been removed and will be ignored

read_data       initial.data
Reading data file ...
  triclinic box = (0 0 0) to (8.9138002 19.386999 17.062815) with tilt (0 -8.2834166 0)
  reading atoms ...
  212 atoms
  scanning bonds ...
  scanning angles ...
  scanning dihedrals ...
  scanning impropers ...
  triclinic box = (0 0 0) to (8.9138002 19.386999 17.062815) with tilt (0 -8.2834166 0)
  reading bonds ...
  256 bonds
  reading angles ...
  492 angles
  reading dihedrals ...
  912 dihedrals
  reading impropers ...
  48 impropers
Finding 1-2 1-3 1-4 neighbors ...
     5 = max # of 1-2 neighbors
     8 = max # of 1-3 neighbors
    24 = max # of 1-4 neighbors
    26 = max # of special neighbors

group           mof type 1 2 3 4 5 6
176 atoms in group mof
group           h2o type 7 8
18 atoms in group h2o
group           co2 type 9 10
18 atoms in group co2

## Bonded styles ##
bond_style      harmonic
angle_style     harmonic
dihedral_style  harmonic
improper_style  cvff

## MOF ##
bond_coeff      1      32.28973605       2.15620001 # Zn  o
bond_coeff      2       36.9295234       2.05480166 # Zn  nc
bond_coeff      3            510.5       1.36500000 # nc  nc
bond_coeff      4            441.1       1.36900000 # cc  nc
bond_coeff      5            349.1       1.08400000 # cc  ha
bond_coeff      6            637.5       1.21800000 # c  o
bond_coeff      7            291.7       1.54800000 # c  c
angle_coeff     1      30.87978925     131.460673 # Zn-nc-cc
angle_coeff     2        57.496879     120.196951 # Zn-nc-nc
angle_coeff     3       48.4760699     109.336204 # Zn-o-c
angle_coeff     4        11.987154      92.5855661 # nc-Zn-nc
angle_coeff     5        18.429192      74.0971127 # o-Zn-o
angle_coeff     6       20.2159165      86.183884 # o-Zn-nc
angle_coeff     7       23.9870345     116.167131 # o-Zn-nc
angle_coeff     8       74.3545905     169.105528 # o-Zn-nc
angle_coeff     9             72.9     120.000000 # cc-nc-nc
angle_coeff     10            69.9     129.000000 # nc-cc-nc
angle_coeff     11            50.9     116.500000 # ha-cc-nc
angle_coeff     12            71.0     117.200000 # cc-nc-cc
angle_coeff     13            77.9     130.200000 # o-c-o
angle_coeff     14            67.2     120.800000 # c-c-o
dihedral_coeff    1       17.03190        -1         2 # Zn-nc-nc-cc
dihedral_coeff    2       8.367632        -1         2 # Zn-nc-cc-nc
dihedral_coeff    3       3.138488         1         2 # Zn-nc-cc-ha
dihedral_coeff    4       0.864613        -1         2 # Zn-o-c-o
dihedral_coeff    5       0.409487         1         2 # Zn-o-c-c
dihedral_coeff    6       5.537521         1         2 # o-Zn-o-c
dihedral_coeff    7            0.0         1         2 # nc-Zn-nc-cc
dihedral_coeff    8            0.0         1         2 # nc-Zn-nc-nc
dihedral_coeff    9            0.0         1         2 # nc-Zn-o-c
dihedral_coeff   10            0.0         1         2 # o-Zn-nc-cc
dihedral_coeff   11            0.0         1         2 # o-Zn-nc-nc
dihedral_coeff   12         4.7500        -1         2 # nc-cc-nc-nc
dihedral_coeff   13         4.7500        -1         2 # ha-cc-nc-nc
dihedral_coeff   14         4.0000        -1         2 # cc-nc-nc-cc
dihedral_coeff   15         4.7500        -1         2 # nc-cc-nc-cc
dihedral_coeff   16         4.7500        -1         2 # ha-cc-nc-cc
dihedral_coeff   17         0.3000        -1         2 # o-c-c-o
improper_coeff    1         1.1000        -1         2 # ha-cc-nc-nc
improper_coeff    2         1.1000        -1         2 # c-c-o-o

## H2O ##
bond_coeff       8 0.0 0.0
angle_coeff      15 0.0 0.0

## CO2 ##
bond_coeff  9  0.0  0.0
angle_coeff  16 0.0  0.0

## LJ ##
pair_style      hybrid/overlay mbx 9.0 lj/cut 9.0 coul/exclude 9.0 #
pair_modify     tail yes

## MOF pair coefficients ##
pair_coeff      2      2         lj/cut      0.170000      3.249999
pair_coeff      2      3         lj/cut      0.120913      3.324834
pair_coeff      2      4         lj/cut      0.050498      2.924820
pair_coeff      2      5         lj/cut      0.188944      3.104782
pair_coeff      2      6         lj/cut      0.120913      3.324834
pair_coeff      3      3         lj/cut      0.086000      3.399670
pair_coeff      3      4         lj/cut      0.035917      2.999656
pair_coeff      3      5         lj/cut      0.134387      3.179618
pair_coeff      3      6         lj/cut      0.086000      3.399670
pair_coeff      4      4         lj/cut      0.015000      2.599642
pair_coeff      4      5         lj/cut      0.056125      2.779604
pair_coeff      4      6         lj/cut      0.035917      2.999656
pair_coeff      5      5         lj/cut      0.210000      2.959566
pair_coeff      5      6         lj/cut      0.134387      3.179618
pair_coeff      6      6         lj/cut      0.086000      3.399670
pair_coeff      1      2         lj/cut      0.145190      2.855776
pair_coeff      1      3         lj/cut      0.103267      2.930611
pair_coeff      1      4         lj/cut      0.043128      2.530598
pair_coeff      1      5         lj/cut      0.161369      2.710559
pair_coeff      1      6         lj/cut      0.103267      2.930611
pair_coeff      1      1         lj/cut      0.124000      2.461553

# suggested LJ parameters for MB-pol:
# σOO = 3.26393 Å
# εOO = 0.26948 kcal/mol
# σHH = 2.68354 Å
# εHH = 3.7E-10 kcal/mol
# Mixed using Lorentz-Berthelot rules (epsilon geometric, sigma arithmetic)

# H2O MOF Mixed
pair_coeff      2      7         lj/cut      0.177433      3.204449
pair_coeff      2      8         lj/cut      0.000000      0.000000
pair_coeff      3      7         lj/cut      0.126200      3.279285
pair_coeff      3      8         lj/cut      0.000000      0.000000
pair_coeff      4      7         lj/cut      0.052705      2.879271
pair_coeff      4      8         lj/cut      0.000000      0.000000
pair_coeff      5      7         lj/cut      0.197205      3.059233
pair_coeff      5      8         lj/cut      0.000000      0.000000
pair_coeff      6      7         lj/cut      0.126200      3.279285
pair_coeff      6      8         lj/cut      0.000000      0.000000
pair_coeff      1      7         lj/cut      0.151537      2.810227
pair_coeff      1      8         lj/cut      0.000000      0.000000

# CO2 MOF Mixed
pair_coeff      2      9         lj/cut      0.095485      3.024999
pair_coeff      2     10         lj/cut      0.163330      3.149999
pair_coeff      3      9         lj/cut      0.067914      3.099835
pair_coeff      3     10         lj/cut      0.116169      3.224835
pair_coeff      4      9         lj/cut      0.028363      2.699821
pair_coeff      4     10         lj/cut      0.048516      2.824821
pair_coeff      5      9         lj/cut      0.106125      2.879783
pair_coeff      5     10         lj/cut      0.181531      3.004783
pair_coeff      6      9         lj/cut      0.067914      3.099835
pair_coeff      6     10         lj/cut      0.116169      3.224835
pair_coeff      1      9         lj/cut      0.081549      2.630777
pair_coeff      1     10         lj/cut      0.139493      2.755777

#MBX
pair_coeff      7*10   7*10  mbx  0.0 0.0

#coul exclude
pair_coeff      1*6 1*6 coul/exclude

special_bonds   amber
Finding 1-2 1-3 1-4 neighbors ...
     5 = max # of 1-2 neighbors
     8 = max # of 1-3 neighbors
    24 = max # of 1-4 neighbors
    26 = max # of special neighbors

timestep        0.2

velocity        all create 1000 428879 rot yes dist gaussian
velocity        all zero linear
velocity        all zero angular

neighbor        2.0 bin
neigh_modify    every 1 delay 1 check yes

compute         mbx all pair mbx
fix             fxmbx all mbx 3 dp1 1 6 1 1 h2o 7 8 3 7 8 8 co2 9 10 3 9 10 10 json mbx.json
fix             fxnpt all npt temp 1000 1000 20 iso 1 1 $(1000.0*dt) tchain 4
fix             fxnpt all npt temp 1000 1000 20 iso 1 1 200 tchain 4

fix             thermo_print all print 125 "$(step) $(0.001*time) $(temp) $(etotal) $(ke) $(pe) $(enthalpy) $(density) $(vol) $(press)"                 append thermo.out screen no title "# step time temp etotal ke pe enthalpy density vol press"

thermo_style    custom step time temp etotal density lx ly lz vol pxx pyy pzz press
thermo          125
thermo_modify   flush yes

dump            1 all custom 125 traj.lammpstrj id mol element type x y z
dump_modify     1 element Zn1 N2 C3 H4 O5 C6 O H C7 O8
dump_modify     1 sort id

restart         125 restart.1 restart.2

run             50000  upto

CITE-CITE-CITE-CITE-CITE-CITE-CITE-CITE-CITE-CITE-CITE-CITE-CITE

Your simulation uses code contributions which should be cited:

- fix mbx command:

@article{10.1063/5.0156036,
 author = {Riera, Marc and Knight, Christopher and Bull-Vulpe, Ethan F. and Zhu, Xuanyu and Agnew, Henry and Smith, Daniel G. A. and Simmonett, Andrew C. and Paesani, Francesco},
 title = "{MBX: A many-body energy and force calculator for data-driven many-body simulations}",
 journal = {The Journal of Chemical Physics},
 volume = {159},
 number = {5},
 pages = {054802},
 year = {2023},
 doi = {10.1063/5.0156036},
}

CITE-CITE-CITE-CITE-CITE-CITE-CITE-CITE-CITE-CITE-CITE-CITE-CITE

Generated 0 of 45 mixed pair_coeff terms from geometric mixing rule
Step          Time           Temp          TotEng        Density           Lx             Ly             Lz           Volume          Pxx            Pyy            Pzz           Press
0   0              1000           2699.3857      1.8084835      8.9138002      19.386999      17.062815      2948.6564      6581.5294      187477.79      134719.37      109592.9
Averages over the last 201 of 401 rows, steps 25000 to 50000:
Temp TotEng Density Lx Ly Lz Volume Pxx Pyy Pzz Press
999.617 1618.47 1.89237 8.78078 19.0977 16.8082 2818.94 -2270.48 -384.625 3250.83 198.575
Loop time of 1407.56 on 16 procs for 50000 steps with 212 atoms

write_data      final.data nocoeff
System init for write_data ...
Generated 0 of 45 mixed pair_coeff terms from geometric mixing rule
write_restart   restart.final
System init for write_restart ...
Generated 0 of 45 mixed pair_coeff terms from geometric mixing rule

[MBX] Total MBX fix/pair time= 1407.890929 seconds
[MBX] Timing Summary
[MBX] kernel                      tmin          tavg          tmax         count   %total
[MBX] -----------------------------------------------------------------------------------
[MBX] INIT                :       0.92906       0.92906       0.92906       943     0.07%
[MBX] UPDATE_XYZ          :        4.4081        4.4081        4.4081     50001     0.31%
[MBX] ACCUMULATE_F        :        9.3732        9.3732        9.3732    250005     0.67%
[MBX] E1B                 :         3.982         3.982         3.982     50001     0.28%
[MBX] E2B_LOCAL           :             0             0             0         0     0.00%
[MBX] E2B_GHOST           :        19.818        19.818        19.818     50001     1.41%
[MBX] E3B_LOCAL           :             0             0             0         0     0.00%
[MBX] E3B_GHOST           :        16.412        16.412        16.412     50001     1.17%
[MBX] E4B_LOCAL           :             0             0             0         0     0.00%
[MBX] E4B_GHOST           :        2.5089        2.5089        2.5089     50001     0.18%
[MBX] DISP                :        19.739        19.739        19.739     50001     1.40%
[MBX] DISP_PME            :        371.29        371.29        371.29     50001    26.37%
[MBX] BUCK                :        17.709        17.709        17.709    100002     1.26%
[MBX] ELE                 :        832.26        832.26        832.26     50001    59.11%
[MBX] INIT_FULL           :             0             0             0         0     0.00%
[MBX] UPDATE_XYZ_FULL     :             0             0             0         0     0.00%
[MBX] ACCUMULATE_F_FULL   :             0             0             0         0     0.00%
[MBX] INIT_LOCAL          :        9.9539        9.9539        9.9539       943     0.71%
[MBX] UPDATE_XYZ_LOCAL    :        2.6787        2.6787        2.6787     50001     0.19%
[MBX] ACCUMULATE_F_LOCAL  :        4.0305        4.0305        4.0305    200004     0.29%

[MBX] Electrostatics Summary
[MBX] kernel                      tmin          tavg          tmax         count   %total
[MBX] -----------------------------------------------------------------------------------
[MBX] ELE_PERMDIP_REAL    :        31.572        31.572        31.572     50001     2.24%
[MBX] ELE_PERMDIP_PME     :        27.817        27.817        27.817     50001     1.98%
[MBX] ELE_DIPFIELD_REAL   :        121.96        121.96        121.96    380404     8.66%
[MBX] ELE_DIPFIELD_PME    :        147.39        147.39        147.39    380404    10.47%
[MBX] ELE_GRAD_REAL       :         35.54         35.54         35.54     50001     2.52%
[MBX] ELE_GRAD_PME        :        89.378        89.378        89.378     50001     6.35%
[MBX] ELE_GRAD_FIN        :        1.1033        1.1033        1.1033     50001     0.08%
[MBX] ELE_PME_SETUP       :      0.023775      0.023775      0.023775    480406     0.00%
[MBX] ELE_PME_C           :        54.898        54.898        54.898    100002     3.90%
[MBX] ELE_PME_D           :        177.12        177.12        177.12    430405    12.58%
[MBX] ELE_PME_E           :        31.262        31.262        31.262     50001     2.22%
[MBX] DISP_PME_SETUP      :        325.92        325.92        325.92     50001    23.15%
[MBX] DISP_PME_E          :        34.034        34.034        34.034     50001     2.42%
[MBX] ELE_COMM_REVFOR     :       0.60901       0.60901       0.60901    480406     0.04%
[MBX] ELE_COMM_REVSET     :      0.002002      0.002002      0.002002       943     0.00%
[MBX] ELE_COMM_REV        :      0.057779      0.057779      0.057779    429462     0.00%
[MBX] ELE_COMM_FORSET     :     0.0068282     0.0068282     0.0068282       943     0.00%
[MBX] ELE_COMM_FOR        :       0.17353       0.17353       0.17353    429462     0.01%
