LAMMPS (29 Aug 2024 - Update 3)
# Graphene sheet - MB-pol water simulation

variable        T   equal  300
variable        P   equal  1.0
variable        dt  equal  0.5
variable        nsteps equal 2000
variable        thermo_freq equal 5
variable        dump_freq equal 5

processors      * * 1 map xyz

boundary        p p p
units           real
atom_style      full
bond_style      harmonic
angle_style     harmonic
angle_style     harmonic
dihedral_style  opls
improper_style  harmonic

read_data       initial.data
Reading data file ...
  orthogonal box = (1.0568711 0.64396383 0) to (22.943129 23.356036 100)
  reading atoms ...
  1896 atoms
  reading velocities ...
  1896 velocities
  scanning bonds ...
  scanning angles ...
  orthogonal box = (1.0568711 0.64396383 0) to (22.943129 23.356036 100)
  reading bonds ...
  1024 bonds
  reading angles ...
  512 angles
Finding 1-2 1-3 1-4 neighbors ...
     2 = max # of 1-2 neighbors
     1 = max # of 1-3 neighbors
     1 = max # of 1-4 neighbors
     2 = max # of special neighbors

pair_style      hybrid/overlay mbx 9.0 lj/cut 9.0  tersoff     # coul/exclude 9.0
pair_modify     tail yes   # add long-range VanderWaals tail "correction"

pair_coeff      * * tersoff C.tersoff C NULL NULL

# LJ epsilon and sigma are in kcal/mol and Angstroms
#pair_coeff      1      1         lj/cut      0.076            3.55000 #C - C

# suggested LJ parameters for MB-pol:
# σOO = 3.26393 Å
# εOO = 0.26948 kcal/mol
# σHH = 2.68354 Å
# εHH = 3.7E-10 kcal/mol
# Mixed using Lorentz-Berthelot rules (epsilon geometric, sigma arithmetic)
pair_coeff      1      2 lj/cut  0.14311     3.40696
pair_coeff      1      3 lj/cut  5.3E-06     3.11677

#pair_coeff      1 1 coul/exclude

#MBX-water
pair_coeff      2*3 2*3 mbx 0.0 0.0

timestep        0.5

neigh_modify    every 1 delay 0 check yes

compute         mbx all pair mbx
fix             fxmbx all mbx 2 dp1 1 1 1 1 h2o 2 3 3 2 3 3 json mbx.json print/settings print/dipoles
fix             fxnpt all npt temp 300 300 500 iso 1 1 $(4000.0*dt)
fix             fxnpt all npt temp 300 300 500 iso 1 1 2000

fix             thermo_print all print 5 "$(step) $(0.001*time) $(temp) $(etotal) $(ke) $(pe) $(enthalpy) $(density) $(vol) $(press)"                 append thermo.out screen no title "# step time temp etotal ke pe enthalpy density vol press"

thermo_style    custom step time temp etotal density lx ly lz vol pxx pyy pzz press
thermo          5
thermo_modify   flush yes

dump            2 all custom 5 traj.lammpstrj id mol element type x y z vx vy vz
dump_modify     2 element C O H
dump_modify     2 append no sort id

restart         5 restart.1 restart.2

run             2000  upto

CITE-CITE-CITE-CITE-CITE-CITE-CITE-CITE-CITE-CITE-CITE-CITE-CITE

Your simulation uses code contributions which should be cited:

- fix mbx command:

@article{10.1063/5.0156036,
 author = {Riera, Marc and Knight, Christopher and Bull-Vulpe, Ethan F. and Zhu, Xuanyu and Agnew, Henry and Smith, Daniel G. A. and Simmonett, Andrew C. and Paesani, Francesco},
 title = "{MBX: A many-body energy and force calculator for data-driven many-body simulations}",
 journal = {The Journal of Chemical Physics},
 volume = {159},
 number = {5},
 pages = {054802},
 year = {2023},
 doi = {10.1063/5.0156036},
}

CITE-CITE-CITE-CITE-CITE-CITE-CITE-CITE-CITE-CITE-CITE-CITE-CITE

[MBX] 'Local' Settings
Box:                     2.1886e+01 0.0000e+00 0.0000e+00 0.0000e+00 2.2712e+01 0.0000e+00 0.0000e+00 0.0000e+00 1.0000e+02
realspace cutoff:        9.0000e+00
2B cutoff:               9.0000e+00
3B cutoff:               4.5000e+00
4B cutoff:               0.0000e+00
Max Eval Mon:            1024
Max Eval Dim:            1024
Max Eval Trim:           1024
Dipole Tol:              1.0000e-08
Dipole Max Iter:         100
Dipole Method:           cg
Ewald Alpha Elec:        6.0000e-01
Grid Dens Elec:          2.5000e+00
Spline Order Elec:       6
Ewald Alpha Disp:        6.0000e-01
Grid Dens Disp:          2.5000e+00
Spline Order Disp:       6
Ewald Alpha LJ:          0.0000e+00
Grid Dens LJ:            2.5000e+00
Spline Order LJ:         6
TTM-pairs:
Forcefield Mons:
Ignore 1B poly:
Ignore 2B poly:
Ignore 3B poly:
Ignore 4B poly:
FFT grid electrostatics:
FFT grid dispersion:

[MBX] LOCAL electrostatics FFT grid= 26 27 120
[MBX] LOCAL dispersion FFT grid= 54 56 250
Step          Time           Temp          TotEng        Density           Lx             Ly             Lz           Volume          Pxx            Pyy            Pzz           Press
0   0              216.00851     -64119.787      0.45256862     21.886258      22.712072      100            49708.227     -14397.696     -11902.883     -13072.154     -13124.244
Averages over the last 201 of 401 rows, steps 1000 to 2000:
Temp TotEng Density Lx Ly Lz Volume Pxx Pyy Pzz Press
301.68 -64121.2 0.452498 21.8875 22.7134 100.006 49717.4 -165.449 856.671 -148.992 180.743
Loop time of 518.427 on 16 procs for 2000 steps with 1896 atoms

write_data      final.data nocoeff
System init for write_data ...
write_restart   restart.final
System init for write_restart ...

[MBX] Total MBX fix/pair time= 519.003063 seconds
[MBX] Timing Summary
[MBX] kernel                      tmin          tavg          tmax         count   %total
[MBX] -----------------------------------------------------------------------------------
[MBX] INIT                :         3.134         3.134         3.134       401     0.60%
[MBX] UPDATE_XYZ          :         0.673         0.673         0.673      2001     0.13%
[MBX] ACCUMULATE_F        :        1.4647        1.4647        1.4647     10005     0.28%
[MBX] E1B                 :        1.5881        1.5881        1.5881      2001     0.31%
[MBX] E2B_LOCAL           :             0             0             0         0     0.00%
[MBX] E2B_GHOST           :        13.867        13.867        13.867      2001     2.67%
[MBX] E3B_LOCAL           :             0             0             0         0     0.00%
[MBX] E3B_GHOST           :        39.831        39.831        39.831      2001     7.67%
[MBX] E4B_LOCAL           :             0             0             0         0     0.00%
[MBX] E4B_GHOST           :       0.52617       0.52617       0.52617      2001     0.10%
[MBX] DISP                :        31.013        31.013        31.013      2001     5.98%
[MBX] DISP_PME            :            44            44            44      2001     8.48%
[MBX] BUCK                :        28.623        28.623        28.623      4002     5.52%
[MBX] ELE                 :        304.09        304.09        304.09      2001    58.59%
[MBX] INIT_FULL           :             0             0             0         0     0.00%
[MBX] UPDATE_XYZ_FULL     :             0             0             0         0     0.00%
[MBX] ACCUMULATE_F_FULL   :             0             0             0         0     0.00%
[MBX] INIT_LOCAL          :        5.9651        5.9651        5.9651       401     1.15%
[MBX] UPDATE_XYZ_LOCAL    :       0.47834       0.47834       0.47834      2001     0.09%
[MBX] ACCUMULATE_F_LOCAL  :       0.95142       0.95142       0.95142      8004     0.18%

[MBX] Electrostatics Summary
[MBX] kernel                      tmin          tavg          tmax         count   %total
[MBX] -----------------------------------------------------------------------------------
[MBX] ELE_PERMDIP_REAL    :        10.099        10.099        10.099      2001     1.95%
[MBX] ELE_PERMDIP_PME     :        13.749        13.749        13.749      2001     2.65%
[MBX] ELE_DIPFIELD_REAL   :        42.021        42.021        42.021     24011     8.10%
[MBX] ELE_DIPFIELD_PME    :        127.39        127.39        127.39     24011    24.55%
[MBX] ELE_GRAD_REAL       :          17.2          17.2          17.2      2001     3.31%
[MBX] ELE_GRAD_PME        :         37.29         37.29         37.29      2001     7.18%
[MBX] ELE_GRAD_FIN        :        1.2024        1.2024        1.2024      2001     0.23%
[MBX] ELE_PME_SETUP       :     0.0024601     0.0024601     0.0024601     28013     0.00%
[MBX] ELE_PME_C           :        25.182        25.182        25.182      4002     4.85%
[MBX] ELE_PME_D           :        137.69        137.69        137.69     26012    26.53%
[MBX] ELE_PME_E           :        13.212        13.212        13.212      2001     2.55%
[MBX] DISP_PME_SETUP      :        15.851        15.851        15.851      2001     3.05%
[MBX] DISP_PME_E          :        24.486        24.486        24.486      2001     4.72%
[MBX] ELE_COMM_REVFOR     :       0.58154       0.58154       0.58154     28013     0.11%
[MBX] ELE_COMM_REVSET     :      0.014701      0.014701      0.014701       401     0.00%
[MBX] ELE_COMM_REV        :      0.012127      0.012127      0.012127     25611     0.00%
[MBX] ELE_COMM_FORSET     :      0.045407      0.045407      0.045407       401     0.01%
[MBX] ELE_COMM_FOR        :       0.32551       0.32551       0.32551     25611     0.06%
