LAMMPS (29 Aug 2024 - Update 3)
# LAMMPS input script for CNT-water simulation using Dreiding and MBpol

variable        T   equal  298
variable        P   equal  1.0
variable        dt  equal  0.5
variable        nsteps equal 2000
variable        thermo_freq equal 5
variable        dump_freq equal 5

processors      * * * map xyz

boundary        p p p
units           real
atom_style      full
read_data       initial.data
Reading data file ...
  orthogonal box = (0 0 -0.53971307) to (40 40 97.973713)
  reading atoms ...
  7320 atoms
  scanning bonds ...
  scanning angles ...
  scanning dihedrals ...
  scanning impropers ...
  orthogonal box = (0 0 -0.53971307) to (40 40 97.973713)
  reading bonds ...
  9480 bonds
  reading angles ...
  17160 angles
  reading dihedrals ...
  33120 dihedrals
  reading impropers ...
  5520 impropers
Finding 1-2 1-3 1-4 neighbors ...
     3 = max # of 1-2 neighbors
     6 = max # of 1-3 neighbors
    18 = max # of 1-4 neighbors
    18 = max # of special neighbors

#define groups
group           water type 2 3
1800 atoms in group water
group           cnt type 1
5520 atoms in group cnt

# styles
bond_style      harmonic
angle_style     cosine/squared
dihedral_style  harmonic
improper_style  umbrella
special_bonds   dreiding
Finding 1-2 1-3 1-4 neighbors ...
     3 = max # of 1-2 neighbors
     6 = max # of 1-3 neighbors
    18 = max # of special neighbors

# CNT
bond_coeff      1   650.0        1.42          # C-C
angle_coeff     1   66.7         120.0         # C-C-C
dihedral_coeff  1   3.125       -1           2 # C-C-C-C
improper_coeff  1   40           0

# Set to 0 for MBX
bond_coeff      2   0.0 0.0  # Ow-Hw
angle_coeff     2   0.0 0.0  # Hw-Ow-Hw

# Define the pair styles using hybrid
pair_style      hybrid/overlay mbx 9.0 lj/cut 9.0 coul/exclude 9.0
pair_modify     tail yes

pair_coeff      * * mbx 0.0 0.0

# LJ epsilon and sigma are in kcal/mol and Angstroms
pair_coeff      1      1         lj/cut      0.076            3.55000 #C - C

# suggested LJ parameters for MB-pol:
# σOO = 3.26393 Å
# εOO = 0.26948 kcal/mol
# σHH = 2.68354 Å
# εHH = 3.7E-10 kcal/mol
# Mixed using Lorentz-Berthelot rules (epsilon geometric, sigma arithmetic)
pair_coeff      1      2         lj/cut      0.14311          3.40696 #O - C
pair_coeff      1      3         lj/cut      5.3E-06          3.11677 #H - C

pair_coeff      1      1         coul/exclude

timestep        0.5

velocity        water create 298 12345 dist uniform rot yes mom yes

neighbor        2.0 bin
neigh_modify    every 1 delay 0 check yes

compute         mbx all pair mbx
fix             fxmbx all mbx 2 h2o 2 3 3 2 3 3 dp1 1 1 1 1 json mbx.json
fix             fxnpt all npt temp 298 298 50 aniso 1 1 $(1000.0*dt) couple none
fix             fxnpt all npt temp 298 298 50 aniso 1 1 500 couple none

fix             ICECUBE all momentum 1000 linear 1 1 1 angular rescale

fix             thermo_print all print 5 "$(step) $(0.001*time) $(temp) $(etotal) $(ke) $(pe) $(enthalpy) $(density) $(vol) $(press)"                 append thermo.out screen no title "# step time temp etotal ke pe enthalpy density vol press"

thermo_style    custom step time temp etotal density lx ly lz vol pxx pyy pzz press
thermo          5
thermo_modify   flush yes

dump            TRAJ all custom 5 traj.lammpstrj id mol element type xu yu zu q vx vy vz
dump_modify     TRAJ element C O H
dump_modify     TRAJ sort id

restart         5 restart.1 restart.2

run             2000  upto

CITE-CITE-CITE-CITE-CITE-CITE-CITE-CITE-CITE-CITE-CITE-CITE-CITE

Your simulation uses code contributions which should be cited:

- fix mbx command:

@article{10.1063/5.0156036,
 author = {Riera, Marc and Knight, Christopher and Bull-Vulpe, Ethan F. and Zhu, Xuanyu and Agnew, Henry and Smith, Daniel G. A. and Simmonett, Andrew C. and Paesani, Francesco},
 title = "{MBX: A many-body energy and force calculator for data-driven many-body simulations}",
 journal = {The Journal of Chemical Physics},
 volume = {159},
 number = {5},
 pages = {054802},
 year = {2023},
 doi = {10.1063/5.0156036},
}

CITE-CITE-CITE-CITE-CITE-CITE-CITE-CITE-CITE-CITE-CITE-CITE-CITE

Generated 0 of 3 mixed pair_coeff terms from geometric mixing rule
Step          Time           Temp          TotEng        Density           Lx             Ly             Lz           Volume          Pxx            Pyy            Pzz           Press
0   0              73.247985      34928.011      0.81234924     40             40             98.513426      157621.48      33888.943      33767.429      58387.111      42014.494
Averages over the last 201 of 401 rows, steps 1000 to 2000:
Temp TotEng Density Lx Ly Lz Volume Pxx Pyy Pzz Press
296.864 38099.4 0.822084 40.5308 38.655 99.4229 155759 303.671 -583.118 13.0117 -88.8119
Loop time of 1051.83 on 16 procs for 2000 steps with 7320 atoms

write_data      final.data nocoeff
System init for write_data ...
Generated 0 of 3 mixed pair_coeff terms from geometric mixing rule
write_restart   restart.final
System init for write_restart ...
Generated 0 of 3 mixed pair_coeff terms from geometric mixing rule

[MBX] Total MBX fix/pair time= 1053.031239 seconds
[MBX] Timing Summary
[MBX] kernel                      tmin          tavg          tmax         count   %total
[MBX] -----------------------------------------------------------------------------------
[MBX] INIT                :         2.624         2.624         2.624       401     0.25%
[MBX] UPDATE_XYZ          :        1.3529        1.3529        1.3529      2001     0.13%
[MBX] ACCUMULATE_F        :        3.2923        3.2923        3.2923     10005     0.31%
[MBX] E1B                 :        0.9122        0.9122        0.9122      2001     0.09%
[MBX] E2B_LOCAL           :             0             0             0         0     0.00%
[MBX] E2B_GHOST           :        10.003        10.003        10.003      2001     0.95%
[MBX] E3B_LOCAL           :             0             0             0         0     0.00%
[MBX] E3B_GHOST           :         16.08         16.08         16.08      2001     1.53%
[MBX] E4B_LOCAL           :             0             0             0         0     0.00%
[MBX] E4B_GHOST           :       0.41645       0.41645       0.41645      2001     0.04%
[MBX] DISP                :        14.789        14.789        14.789      2001     1.40%
[MBX] DISP_PME            :        93.451        93.451        93.451      2001     8.87%
[MBX] BUCK                :         14.09         14.09         14.09      4002     1.34%
[MBX] ELE                 :        765.13        765.13        765.13      2001    72.66%
[MBX] INIT_FULL           :             0             0             0         0     0.00%
[MBX] UPDATE_XYZ_FULL     :             0             0             0         0     0.00%
[MBX] ACCUMULATE_F_FULL   :             0             0             0         0     0.00%
[MBX] INIT_LOCAL          :        8.7968        8.7968        8.7968       401     0.84%
[MBX] UPDATE_XYZ_LOCAL    :       0.79631       0.79631       0.79631      2001     0.08%
[MBX] ACCUMULATE_F_LOCAL  :        1.8016        1.8016        1.8016      8004     0.17%

[MBX] Electrostatics Summary
[MBX] kernel                      tmin          tavg          tmax         count   %total
[MBX] -----------------------------------------------------------------------------------
[MBX] ELE_PERMDIP_REAL    :        25.955        25.955        25.955      2001     2.46%
[MBX] ELE_PERMDIP_PME     :         44.07         44.07         44.07      2001     4.19%
[MBX] ELE_DIPFIELD_REAL   :        64.007        64.007        64.007     24012     6.08%
[MBX] ELE_DIPFIELD_PME    :         341.7         341.7         341.7     24012    32.45%
[MBX] ELE_GRAD_REAL       :        50.454        50.454        50.454      2001     4.79%
[MBX] ELE_GRAD_PME        :        126.57        126.57        126.57      2001    12.02%
[MBX] ELE_GRAD_FIN        :         1.724         1.724         1.724      2001     0.16%
[MBX] ELE_PME_SETUP       :     0.0022569     0.0022569     0.0022569     28014     0.00%
[MBX] ELE_PME_C           :        83.954        83.954        83.954      4002     7.97%
[MBX] ELE_PME_D           :        382.63        382.63        382.63     26013    36.34%
[MBX] ELE_PME_E           :        43.635        43.635        43.635      2001     4.14%
[MBX] DISP_PME_SETUP      :        24.364        24.364        24.364      2001     2.31%
[MBX] DISP_PME_E          :        63.926        63.926        63.926      2001     6.07%
[MBX] ELE_COMM_REVFOR     :         11.89         11.89         11.89     28014     1.13%
[MBX] ELE_COMM_REVSET     :      0.017854      0.017854      0.017854       401     0.00%
[MBX] ELE_COMM_REV        :      0.016436      0.016436      0.016436     25612     0.00%
[MBX] ELE_COMM_FORSET     :      0.054704      0.054704      0.054704       401     0.01%
[MBX] ELE_COMM_FOR        :       0.41856       0.41856       0.41856     25612     0.04%
