LAMMPS (29 Aug 2024 - Update 3)
# Alumina-water slab classical MD simulations

variable        T   equal  298.0
variable        P   equal  1.0
variable        dt  equal  0.5
variable        nsteps equal 2000
variable        thermo_freq equal 5
variable        dump_freq equal 5

processors      * * * map xyz

boundary        p p p
units           real
atom_style      full
bond_style      harmonic
angle_style     harmonic

read_data       initial.data
Reading data file ...
  triclinic box = (-0.27987037 -0.24237531 -1.1649131) to (24.30487 21.048675 101.16491) with tilt (-12.29237 6.2658906e-15 1.0852897e-14)
  reading atoms ...
  1937 atoms
  reading velocities ...
  1937 velocities
  scanning bonds ...
  scanning angles ...
  triclinic box = (-0.27987037 -0.24237531 -1.1649131) to (24.30487 21.048675 101.16491) with tilt (-12.29237 6.2658906e-15 1.0852897e-14)
  reading bonds ...
  833 bonds
  reading angles ...
  515 angles
Finding 1-2 1-3 1-4 neighbors ...
     2 = max # of 1-2 neighbors
     1 = max # of 1-3 neighbors
     1 = max # of 1-4 neighbors
     2 = max # of special neighbors

# Bond coefficients
bond_coeff      1  554.1349 1.00        #O-H in Al2O3
bond_coeff      2  0.0      0.0         #O-H in water

# Angle coefficients
angle_coeff     1  30.0     109.47      # Al-O-H in Al2O3
angle_coeff     2  0.0      0.0         # H-O-H in water

# Groups
group           water type 1 2
1137 atoms in group water
group           alumina type 3 4 5 6
800 atoms in group alumina

# Charges
set             type 1 charge -0.82
Setting atom values ...
  379 settings made for charge
set             type 2 charge 0.41
Setting atom values ...
  758 settings made for charge
set             type 3 charge 1.57500  #ao octahedral aluminum
Setting atom values ...
  275 settings made for charge
set             type 4 charge -1.05    #ob bridging oxygen
Setting atom values ...
  375 settings made for charge
set             type 5 charge -0.95    #oh hydroxyl O
Setting atom values ...
  75 settings made for charge
set             type 6 charge 0.4250   #ho hydroxyl hydrogen
Setting atom values ...
  75 settings made for charge

# MBX parameters
pair_style      hybrid/overlay mbx 9.0 lj/cut 9.0 coul/exclude 9.0
pair_modify     tail yes mix arithmetic

# LJ: MBX-water
pair_coeff      1  1  mbx  0.0 0.0
pair_coeff      1  2  mbx  0.0 0.0
pair_coeff      2  2  mbx  0.0 0.0

# LJ: ClayFF-alumina
pair_coeff      3   3   lj/cut 1.3298e-6      4.2713219316  #ao octahedral aluminum
pair_coeff      4   4   lj/cut 0.1554         3.1655200879  #ob bridging oxygen
pair_coeff      5   5   lj/cut 0.1554         3.1655200879  #oh hydroxyl O
pair_coeff      6   6   lj/cut 0.0000         0.000000      #ho hydroxyl hydrogen

# suggested LJ parameters for MB-pol:
# σOO = 3.26393 Å
# εOO = 0.26948 kcal/mol
# σHH = 2.68354 Å
# εHH = 3.7E-10 kcal/mol
# Mixed using Lorentz-Berthelot rules (epsilon geometric, sigma arithmetic)

# LJ: MBX-water + ClayFF-alumina
pair_coeff      1   3   lj/cut  5.9862E-04    3.767625
pair_coeff      2   3   lj/cut  2.2181E-08    3.477430
pair_coeff      1   4   lj/cut  0.2046        3.214725
pair_coeff      2   4   lj/cut  7.5827E-06    2.924530
pair_coeff      1   5   lj/cut  0.2046        3.214725
pair_coeff      2   5   lj/cut  7.5827E-05    2.924530 # Need explanation: why 7.5827E-05?
pair_coeff      1   6   lj/cut  0.0           1.631965
pair_coeff      2   6   lj/cut  0.0           1.341770

# coul exclude
pair_coeff      5 6 coul/exclude

# timestep
timestep        0.5

# Velocity setup
#velocity        all zero linear
#velocity        all zero angular

compute         mbx all pair mbx
fix             fxmbx all mbx 2 h2o 1 2 3 1 2 2 dp1 3 6 1 3 json mbx.json print/settings print/dipoles
fix             fxnpt all npt temp 298 298 50 iso 1 1 $(1000.0*dt)
fix             fxnpt all npt temp 298 298 50 iso 1 1 500

fix             thermo_print all print 5 "$(step) $(0.001*time) $(temp) $(etotal) $(ke) $(pe) $(enthalpy) $(density) $(vol) $(press)"                 append thermo.out screen no title "# step time temp etotal ke pe enthalpy density vol press"

thermo_style    custom step time temp etotal density lx ly lz vol pxx pyy pzz press
thermo          5
thermo_modify   flush yes

dump            3 all custom 5 traj.lammpstrj id mol element type q x y z
dump_modify     3 element O H Al1 O2 O3 H4
dump_modify     3 sort id

restart         5 restart.1 restart.2

run             2000  upto

CITE-CITE-CITE-CITE-CITE-CITE-CITE-CITE-CITE-CITE-CITE-CITE-CITE

Your simulation uses code contributions which should be cited:

- fix mbx command:

@article{10.1063/5.0156036,
 author = {Riera, Marc and Knight, Christopher and Bull-Vulpe, Ethan F. and Zhu, Xuanyu and Agnew, Henry and Smith, Daniel G. A. and Simmonett, Andrew C. and Paesani, Francesco},
 title = "{MBX: A many-body energy and force calculator for data-driven many-body simulations}",
 journal = {The Journal of Chemical Physics},
 volume = {159},
 number = {5},
 pages = {054802},
 year = {2023},
 doi = {10.1063/5.0156036},
}

CITE-CITE-CITE-CITE-CITE-CITE-CITE-CITE-CITE-CITE-CITE-CITE-CITE

Generated 5 of 15 mixed pair_coeff terms from arithmetic mixing rule

[MBX] 'Local' Settings
Box:                     2.4585e+01 0.0000e+00 0.0000e+00 -1.2292e+01 2.1291e+01 0.0000e+00 6.2659e-15 1.0853e-14 1.0233e+02
realspace cutoff:        9.0000e+00
2B cutoff:               9.0000e+00
3B cutoff:               4.5000e+00
4B cutoff:               0.0000e+00
Max Eval Mon:            1024
Max Eval Dim:            1024
Max Eval Trim:           1024
Dipole Tol:              1.0000e-08
Dipole Max Iter:         100
Dipole Method:           cg
Ewald Alpha Elec:        6.0000e-01
Grid Dens Elec:          2.5000e+00
Spline Order Elec:       6
Ewald Alpha Disp:        6.0000e-01
Grid Dens Disp:          2.5000e+00
Spline Order Disp:       6
Ewald Alpha LJ:          0.0000e+00
Grid Dens LJ:            2.5000e+00
Spline Order LJ:         6
TTM-pairs:
Forcefield Mons:
Ignore 1B poly:
Ignore 2B poly:
Ignore 3B poly:
Ignore 4B poly:
FFT grid electrostatics:
FFT grid dispersion:

[MBX] LOCAL electrostatics FFT grid= 30 30 125
[MBX] LOCAL dispersion FFT grid= 63 63 256
Step          Time           Temp          TotEng        Density           Lx             Ly             Lz           Volume          Pxx            Pyy            Pzz           Press
0   0              300.52576     -147284.77      0.66724386     24.584741      21.291051      102.32983      53563.008     -11485.607     -11445.099     -12002.202     -11644.303
Averages over the last 201 of 401 rows, steps 1000 to 2000:
Temp TotEng Density Lx Ly Lz Volume Pxx Pyy Pzz Press
297.951 -148282 0.667829 24.5776 21.2849 102.3 53516.6 -44.176 82.3945 -36.6897 0.509633
Loop time of 572.307 on 16 procs for 2000 steps with 1937 atoms

write_data      final.data nocoeff
System init for write_data ...
Generated 13 of 15 mixed pair_coeff terms from arithmetic mixing rule
write_restart   restart.final
System init for write_restart ...
Generated 13 of 15 mixed pair_coeff terms from arithmetic mixing rule

[MBX] Total MBX fix/pair time= 572.829266 seconds
[MBX] Timing Summary
[MBX] kernel                      tmin          tavg          tmax         count   %total
[MBX] -----------------------------------------------------------------------------------
[MBX] INIT                :        1.8587        1.8587        1.8587       401     0.32%
[MBX] UPDATE_XYZ          :       0.60586       0.60586       0.60586      2001     0.11%
[MBX] ACCUMULATE_F        :         1.311         1.311         1.311     10005     0.23%
[MBX] E1B                 :        1.0539        1.0539        1.0539      2001     0.18%
[MBX] E2B_LOCAL           :             0             0             0         0     0.00%
[MBX] E2B_GHOST           :        10.566        10.566        10.566      2001     1.84%
[MBX] E3B_LOCAL           :             0             0             0         0     0.00%
[MBX] E3B_GHOST           :        25.665        25.665        25.665      2001     4.48%
[MBX] E4B_LOCAL           :             0             0             0         0     0.00%
[MBX] E4B_GHOST           :       0.37122       0.37122       0.37122      2001     0.06%
[MBX] DISP                :        20.605        20.605        20.605      2001     3.60%
[MBX] DISP_PME            :        49.319        49.319        49.319      2001     8.61%
[MBX] BUCK                :        19.587        19.587        19.587      4002     3.42%
[MBX] ELE                 :        379.94        379.94        379.94      2001    66.33%
[MBX] INIT_FULL           :             0             0             0         0     0.00%
[MBX] UPDATE_XYZ_FULL     :             0             0             0         0     0.00%
[MBX] ACCUMULATE_F_FULL   :             0             0             0         0     0.00%
[MBX] INIT_LOCAL          :        4.3952        4.3952        4.3952       401     0.77%
[MBX] UPDATE_XYZ_LOCAL    :       0.40281       0.40281       0.40281      2001     0.07%
[MBX] ACCUMULATE_F_LOCAL  :       0.75539       0.75539       0.75539      8004     0.13%

[MBX] Electrostatics Summary
[MBX] kernel                      tmin          tavg          tmax         count   %total
[MBX] -----------------------------------------------------------------------------------
[MBX] ELE_PERMDIP_REAL    :        9.7281        9.7281        9.7281      2001     1.70%
[MBX] ELE_PERMDIP_PME     :        20.508        20.508        20.508      2001     3.58%
[MBX] ELE_DIPFIELD_REAL   :         36.57         36.57         36.57     24012     6.38%
[MBX] ELE_DIPFIELD_PME    :        193.62        193.62        193.62     24012    33.80%
[MBX] ELE_GRAD_REAL       :        13.925        13.925        13.925      2001     2.43%
[MBX] ELE_GRAD_PME        :        56.013        56.013        56.013      2001     9.78%
[MBX] ELE_GRAD_FIN        :       0.97888       0.97888       0.97888      2001     0.17%
[MBX] ELE_PME_SETUP       :     0.0019791     0.0019791     0.0019791     28014     0.00%
[MBX] ELE_PME_C           :        38.352        38.352        38.352      4002     6.70%
[MBX] ELE_PME_D           :        211.43        211.43        211.43     26013    36.91%
[MBX] ELE_PME_E           :        19.346        19.346        19.346      2001     3.38%
[MBX] DISP_PME_SETUP      :        13.666        13.666        13.666      2001     2.39%
[MBX] DISP_PME_E          :        32.651        32.651        32.651      2001     5.70%
[MBX] ELE_COMM_REVFOR     :       0.67716       0.67716       0.67716     28014     0.12%
[MBX] ELE_COMM_REVSET     :      0.010992      0.010992      0.010992       401     0.00%
[MBX] ELE_COMM_REV        :      0.015047      0.015047      0.015047     25612     0.00%
[MBX] ELE_COMM_FORSET     :      0.035339      0.035339      0.035339       401     0.01%
[MBX] ELE_COMM_FOR        :       0.25003       0.25003       0.25003     25612     0.04%
