-------------------------------------------------------
          Amber 24 SANDER                              2024
          -------------------------------------------------------

  [-O]verwriting output

File Assignments:

 Here is the input file:

NVT at 300K with Langevin for 1 ps at dt=1.0fs - GAFF / SPCFW
 &cntrl
  imin     = 0,      ! do MD (no minimization)
  irest    = 1,      ! trajectory restart
  ntx      = 5,      ! coordinates and velocities are read in
  dt       = 0.001   ! 1.0fs time step
  ntb      = 0,      ! no periodic boundaries
  cut      = 999.0,  ! non-bonded cutoff
  ntt      = 3,      ! use Langevin thermostat
  gamma_ln = 5.0,    ! Langevin collision frequency in 1/ps
  ig       = -1,     ! random seed based on wall clock
  temp0    = 300.0,  ! target temp = 300K
  ntpr     = 1,      ! logfile print frequency
  ntwx     = 1,      ! coordinate writing frequency
  ntwr     = 1000,   ! restart file writing frequency
  nstlim   = 1000,   ! number of steps
  nscm     = 2000,   ! COM motion removal frequency
  jfastw   = 4,      ! do not use routines for fast triangulated water
  ioutfm   = 1,      ! NetCDF MDCRD.
 /

--------------------------------------------------------------------------------
   1.  RESOURCE   USE:
--------------------------------------------------------------------------------

 NATOM  =    3043 NTYPES =      10 NBONH =    2023 MBONA  =      12
 NTHETH =    1030 MTHETA =      15 NPHIH =      45 MPHIA  =      29
 NHPARM =       0 NPARM  =       0 NNB   =    4136 NRES   =    1010
 NBONA  =      12 NTHETA =      15 NPHIA =      29 NUMBND =      10
 NUMANG =      19 NPTRA  =      19 NATYP =      11 NPHB   =       1
 IFBOX  =       0 NMXRS  =      12 IFCAP =       1 NEXTRA =       0
 NCOPY  =       0

Note: ig = -1. Setting random seed to   237540 based on wallclock time in microseconds.

--------------------------------------------------------------------------------
   2.  CONTROL  DATA  FOR  THE  RUN
--------------------------------------------------------------------------------

default_name

General flags:
     imin    =       0, nmropt  =       0

Nature and format of input:
     ntx     =       5, irest   =       1, ntrx    =       1

Nature and format of output:
     ntxo    =       2, ntpr    =       1, ntrx    =       1, ntwr    =    1000
     iwrap   =       0, ntwx    =       1, ntwv    =       0, ntwe    =       0
     ioutfm  =       1, ntwprt  =       0, idecomp =       0, rbornstat=      0

Potential function:
     ntf     =       1, ntb     =       0, igb     =       0, nsnb    =      25
     ipol    =       0, gbsa    =       0, iesp    =       0
     dielc   =   1.00000, cut     = 999.00000, intdiel =   1.00000

Frozen or restrained atoms:
     ibelly  =       0, ntr     =       0

Molecular dynamics:
     nstlim  =      1000, nscm    =      2000, nrespa  =         1
     t       =   0.00000, dt      =   0.00100, vlimit  =  20.00000

Langevin dynamics temperature regulation:
     ig      =  237540
     temp0   = 300.00000, tempi   =   0.00000, gamma_ln=   5.00000

Water cap:
     ivcap   =       0, natcap  =      25
     fcap    =   1.50000, cutcap  =  20.00000
     xcap    =   5.29467, ycap    =   4.78375, zcap    =  -0.60583

--------------------------------------------------------------------------------
   3.  ATOMIC COORDINATES AND VELOCITIES
--------------------------------------------------------------------------------

default_name
 begin time read from input coords =   100.000 ps

 Number of triangulated 3-point waters found:        0

     Sum of charges from parm topology file =   1.00000000

--------------------------------------------------------------------------------
   4.  RESULTS
 NSTEP =        1   TIME(PS) =     100.001  TEMP(K) =   302.95  PRESS =     0.0
 Etot   =     -7319.7068  EKtot   =      2747.9468  EPtot      =    -10067.6535
 BOND   =      1026.7866  ANGLE   =       673.5990  DIHED      =        15.6346
 1-4 NB =         4.8302  1-4 EEL =        50.7095  VDWAALS    =      2390.2978
 EELEC  =    -14235.1037  EHBOND  =         0.0000  RESTRAINT  =         5.5926
 EAMBER (non-restraint)  =    -10073.2462
 ------------------------------------------------------------------------------

      A V E R A G E S   O V E R    1000 S T E P S

 NSTEP =     1000   TIME(PS) =     101.000  TEMP(K) =   298.07  PRESS =     0.0
 Etot   =     -7270.7846  EKtot   =      2703.6636  EPtot      =     -9974.4482
 BOND   =      1096.0387  ANGLE   =       680.4289  DIHED      =        15.3955
 1-4 NB =         3.3209  1-4 EEL =        49.2355  VDWAALS    =      2423.9673
 EELEC  =    -14250.8117  EHBOND  =         0.0000  RESTRAINT  =         7.9767
 EAMBER (non-restraint)  =     -9982.4250
 ------------------------------------------------------------------------------

      R M S  F L U C T U A T I O N S

 NSTEP =     1000   TIME(PS) =     101.000  TEMP(K) =     3.86  PRESS =     0.0
 Etot   =        32.4421  EKtot   =        35.0259  EPtot      =        38.8945
 BOND   =        35.3669  ANGLE   =        23.7444  DIHED      =         1.4111
 1-4 NB =         0.6952  1-4 EEL =         1.9037  VDWAALS    =        46.0500
 EELEC  =        75.3712  EHBOND  =         0.0000  RESTRAINT  =         1.6538
 EAMBER (non-restraint)  =        37.2407
 ------------------------------------------------------------------------------
