LAMMPS (29 Aug 2024 - Update 3)
# Graphene sheet - MB-pol water simulation

variable        T   equal  300
variable        P   equal  1.0
variable        dt  equal  0.5
variable        nsteps equal 2000
variable        thermo_freq equal 5
variable        dump_freq equal 5

processors      * * 1 map xyz

boundary        p p p
units           real
atom_style      full
bond_style      harmonic
angle_style     harmonic
angle_style     harmonic
dihedral_style  opls
improper_style  harmonic

read_data       initial.data
Reading data file ...
  orthogonal box = (-0.65782654 -0.60213478 0) to (21.657827 21.602135 140)
  reading atoms ...
  2156 atoms
  reading velocities ...
  2156 velocities
  scanning bonds ...
  scanning angles ...
  scanning dihedrals ...
  scanning impropers ...
  orthogonal box = (-0.65782654 -0.60213478 0) to (21.657827 21.602135 140)
  reading bonds ...
  1384 bonds
  reading angles ...
  1312 angles
  reading dihedrals ...
  1610 dihedrals
  reading impropers ...
  720 impropers
Finding 1-2 1-3 1-4 neighbors ...
     3 = max # of 1-2 neighbors
     2 = max # of 1-3 neighbors
     2 = max # of 1-4 neighbors
     3 = max # of special neighbors

pair_style      hybrid/overlay mbx 9.0 lj/cut 9.0  tersoff  coul/exclude 9.0
pair_modify     tail yes   # add long-range VanderWaals tail "correction"

pair_coeff      * * tersoff C.tersoff C C C NULL NULL NULL NULL NULL

# LJ epsilon and sigma are in kcal/mol and Angstroms
pair_coeff      1 4 lj/cut 0.0883 3.1401
pair_coeff      1 5 lj/cut 0.0973 3.2308
pair_coeff      1 6 lj/cut 0.0000 0.0000
pair_coeff      2 4 lj/cut 0.0883 3.1401
pair_coeff      2 5 lj/cut 0.0973 3.2308
pair_coeff      2 6 lj/cut 0.0000 0.0000
pair_coeff      3 4 lj/cut 0.0883 3.1401
pair_coeff      3 5 lj/cut 0.0973 3.2308
pair_coeff      3 6 lj/cut 0.0000 0.0000
pair_coeff      4 4 lj/cut 0.1400 2.9000
pair_coeff      4 5 lj/cut 0.1543 2.9838
pair_coeff      4 6 lj/cut 0.0000 0.0000
pair_coeff      5 5 lj/cut 0.1701 3.0700
pair_coeff      5 6 lj/cut 0.0000 0.0000
pair_coeff      6 6 lj/cut 0.0000 0.0000

# C-C is modeled by Tersoff. However, LJ is used for mixing:
# σCC = 3.39867 Å
# εCC = 0.05568 kcal/mol

# suggested LJ parameters for MB-pol:
# σOO = 3.26393 Å
# εOO = 0.26948 kcal/mol
# σHH = 2.68354 Å
# εHH = 3.7E-10 kcal/mol
# Mixed using Lorentz-Berthelot rules (epsilon geometric, sigma arithmetic)
pair_coeff      1 7 lj/cut 0.1225 3.3313 # C - MBpol Oxygen  (Carbon from paper)
pair_coeff      1 8 lj/cut 0.0001 3.0411 # C - MBpol Hydrogen
pair_coeff      2 7 lj/cut 0.1225 3.3313
pair_coeff      2 8 lj/cut 0.0001 3.0206
pair_coeff      3 7 lj/cut 0.1225 3.3313
pair_coeff      3 8 lj/cut 0.0001 3.0206
pair_coeff      4 7 lj/cut 0.1942 3.0766
pair_coeff      4 8 lj/cut 0.0001 2.7897
pair_coeff      5 7 lj/cut 0.2140 3.1655
pair_coeff      5 8 lj/cut 0.0001 2.8703
pair_coeff      6 7 lj/cut 0.0001 2.8703
pair_coeff      6 8 lj/cut 0.0001 2.6835

pair_coeff      1*6 1*6 coul/exclude

#MBX-water
pair_coeff      7*8 7*8 mbx 0.0 0.0

timestep        0.5

neigh_modify    every 1 delay 0 check yes

compute         mbx all pair mbx
fix             fxmbx all mbx 2 dp1 1 6 1 1 h2o 7 8 3 7 8 8 json mbx.json print/settings print/dipoles
fix             fxnpt all npt temp 300 300 500 iso 1 1 $(4000.0*dt)
fix             fxnpt all npt temp 300 300 500 iso 1 1 2000

fix             thermo_print all print 5 "$(step) $(0.001*time) $(temp) $(etotal) $(ke) $(pe) $(enthalpy) $(density) $(vol) $(press)"                 append thermo.out screen no title "# step time temp etotal ke pe enthalpy density vol press"

thermo_style    custom step time temp etotal density lx ly lz vol pxx pyy pzz press
thermo          5
thermo_modify   flush yes

dump            2 all custom 5 traj.lammpstrj id mol element type x y z vx vy vz
dump_modify     2 element C1 C2 C3 O4 O5 H6 O H
dump_modify     2 append no sort id

restart         5 restart.1 restart.2

run             2000  upto

CITE-CITE-CITE-CITE-CITE-CITE-CITE-CITE-CITE-CITE-CITE-CITE-CITE

Your simulation uses code contributions which should be cited:

- fix mbx command:

@article{10.1063/5.0156036,
 author = {Riera, Marc and Knight, Christopher and Bull-Vulpe, Ethan F. and Zhu, Xuanyu and Agnew, Henry and Smith, Daniel G. A. and Simmonett, Andrew C. and Paesani, Francesco},
 title = "{MBX: A many-body energy and force calculator for data-driven many-body simulations}",
 journal = {The Journal of Chemical Physics},
 volume = {159},
 number = {5},
 pages = {054802},
 year = {2023},
 doi = {10.1063/5.0156036},
}

CITE-CITE-CITE-CITE-CITE-CITE-CITE-CITE-CITE-CITE-CITE-CITE-CITE

[MBX] 'Local' Settings
Box:                     2.2316e+01 0.0000e+00 0.0000e+00 0.0000e+00 2.2204e+01 0.0000e+00 0.0000e+00 0.0000e+00 1.4000e+02
realspace cutoff:        9.0000e+00
2B cutoff:               9.0000e+00
3B cutoff:               7.0000e+00
4B cutoff:               0.0000e+00
Max Eval Mon:            1024
Max Eval Dim:            1024
Max Eval Trim:           1024
Dipole Tol:              1.0000e-08
Dipole Max Iter:         100
Dipole Method:           cg
Ewald Alpha Elec:        6.0000e-01
Grid Dens Elec:          2.5000e+00
Spline Order Elec:       6
Ewald Alpha Disp:        6.0000e-01
Grid Dens Disp:          2.5000e+00
Spline Order Disp:       6
Ewald Alpha LJ:          0.0000e+00
Grid Dens LJ:            2.5000e+00
Spline Order LJ:         6
TTM-pairs:
Forcefield Mons:
Ignore 1B poly:
Ignore 2B poly:
Ignore 3B poly:
Ignore 4B poly:
FFT grid electrostatics:
FFT grid dispersion:

[MBX] LOCAL electrostatics FFT grid= 26 26 168
[MBX] LOCAL dispersion FFT grid= 55 55 350
Step          Time           Temp          TotEng        Density           Lx             Ly             Lz           Volume          Pxx            Pyy            Pzz           Press
0   0              258.37027     -38288.646      0.39515913     22.315653      22.20427       140            69370.389     -4077.6233     -4489.7619     -7067.9442     -5211.7765
Averages over the last 201 of 401 rows, steps 1000 to 2000:
Temp TotEng Density Lx Ly Lz Volume Pxx Pyy Pzz Press
309.755 -38451.3 0.383473 22.5403 22.4278 141.409 71487 333.321 56.7662 -53.8139 112.091
Loop time of 643.762 on 16 procs for 2000 steps with 2156 atoms

write_data      final.data nocoeff
System init for write_data ...
write_restart   restart.final
System init for write_restart ...

[MBX] Total MBX fix/pair time= 644.274865 seconds
[MBX] Timing Summary
[MBX] kernel                      tmin          tavg          tmax         count   %total
[MBX] -----------------------------------------------------------------------------------
[MBX] INIT                :        2.2837        2.2837        2.2837       401     0.35%
[MBX] UPDATE_XYZ          :       0.56355       0.56355       0.56355      2001     0.09%
[MBX] ACCUMULATE_F        :        1.2454        1.2454        1.2454     10005     0.19%
[MBX] E1B                 :        1.3054        1.3054        1.3054      2001     0.20%
[MBX] E2B_LOCAL           :             0             0             0         0     0.00%
[MBX] E2B_GHOST           :        12.093        12.093        12.093      2001     1.88%
[MBX] E3B_LOCAL           :             0             0             0         0     0.00%
[MBX] E3B_GHOST           :        110.46        110.46        110.46      2001    17.14%
[MBX] E4B_LOCAL           :             0             0             0         0     0.00%
[MBX] E4B_GHOST           :       0.47294       0.47294       0.47294      2001     0.07%
[MBX] DISP                :        30.011        30.011        30.011      2001     4.66%
[MBX] DISP_PME            :        52.288        52.288        52.288      2001     8.12%
[MBX] BUCK                :        26.494        26.494        26.494      4002     4.11%
[MBX] ELE                 :        346.12        346.12        346.12      2001    53.72%
[MBX] INIT_FULL           :             0             0             0         0     0.00%
[MBX] UPDATE_XYZ_FULL     :             0             0             0         0     0.00%
[MBX] ACCUMULATE_F_FULL   :             0             0             0         0     0.00%
[MBX] INIT_LOCAL          :        5.7857        5.7857        5.7857       401     0.90%
[MBX] UPDATE_XYZ_LOCAL    :       0.45864       0.45864       0.45864      2001     0.07%
[MBX] ACCUMULATE_F_LOCAL  :       0.87505       0.87505       0.87505      8004     0.14%

[MBX] Electrostatics Summary
[MBX] kernel                      tmin          tavg          tmax         count   %total
[MBX] -----------------------------------------------------------------------------------
[MBX] ELE_PERMDIP_REAL    :        10.107        10.107        10.107      2001     1.57%
[MBX] ELE_PERMDIP_PME     :        16.315        16.315        16.315      2001     2.53%
[MBX] ELE_DIPFIELD_REAL   :        44.611        44.611        44.611     24012     6.92%
[MBX] ELE_DIPFIELD_PME    :        153.82        153.82        153.82     24012    23.87%
[MBX] ELE_GRAD_REAL       :        16.543        16.543        16.543      2001     2.57%
[MBX] ELE_GRAD_PME        :         44.11         44.11         44.11      2001     6.85%
[MBX] ELE_GRAD_FIN        :        1.1531        1.1531        1.1531      2001     0.18%
[MBX] ELE_PME_SETUP       :     0.0018679     0.0018679     0.0018679     28014     0.00%
[MBX] ELE_PME_C           :         30.13         30.13         30.13      4002     4.68%
[MBX] ELE_PME_D           :        166.61        166.61        166.61     26013    25.86%
[MBX] ELE_PME_E           :        15.301        15.301        15.301      2001     2.37%
[MBX] DISP_PME_SETUP      :        18.989        18.989        18.989      2001     2.95%
[MBX] DISP_PME_E          :        30.467        30.467        30.467      2001     4.73%
[MBX] ELE_COMM_REVFOR     :       0.62913       0.62913       0.62913     28014     0.10%
[MBX] ELE_COMM_REVSET     :      0.013546      0.013546      0.013546       401     0.00%
[MBX] ELE_COMM_REV        :      0.013543      0.013543      0.013543     25612     0.00%
[MBX] ELE_COMM_FORSET     :      0.041217      0.041217      0.041217       401     0.01%
[MBX] ELE_COMM_FOR        :       0.28606       0.28606       0.28606     25612     0.04%
